@<TRIPOS>MOLECULE
LIG
   11    10     1     0     0
SMALL
No Charge or Current Charge


@<TRIPOS>ATOM
      1 C1           0.9040    0.0930    0.0690 C.3       1 LIG     -0.102100
      2 H2           0.6360    1.0470   -0.3950 H         1 LIG      0.043367
      3 H3           0.4540    0.0720    1.0660 H         1 LIG      0.043367
      4 H4           0.4570   -0.7090   -0.5280 H         1 LIG      0.043367
      5 C5           2.4210   -0.0510    0.1270 C.3       1 LIG     -0.070400
      6 C6           2.8740   -1.4130    0.6650 C.3       1 LIG      0.205100
      7 I7           4.9970   -1.6590    0.3520 I         1 LIG     -0.194900
      8 I8           2.6200   -1.5800    2.7860 I         1 LIG     -0.194900
      9 H9           2.8380    0.7730    0.7210 H         1 LIG      0.062200
     10 H10          2.7980    0.0840   -0.8950 H         1 LIG      0.062200
     11 H11          2.3440   -2.2240    0.1530 H         1 LIG      0.102700
@<TRIPOS>BOND
     1    1    2 1   
     2    1    3 1   
     3    1    4 1   
     4    1    5 1   
     5    5    6 1   
     6    6    7 1   
     7    6    8 1   
     8    5    9 1   
     9    5   10 1   
    10    6   11 1   
@<TRIPOS>SUBSTRUCTURE
     1 LIG         1 TEMP              0 ****  ****    0 ROOT
