@<TRIPOS>MOLECULE
LIG
   11    10     1     0     0
SMALL
No Charge or Current Charge


@<TRIPOS>ATOM
      1 C1          2.6500   -0.3020    0.1080 C.3       1 LIG      0.026000
      2 Cl2         2.7180   -1.3610   -1.3180 Cl        1 LIG     -0.190400
      3 H3          2.7390   -0.9280    0.9980 H         1 LIG      0.076700
      4 H4          1.6550    0.1540    0.1220 H         1 LIG      0.076700
      5 C5          3.7160    0.7910    0.0570 C.3       1 LIG     -0.078400
      6 C6          5.1630    0.2810    0.0720 C.3       1 LIG      0.195100
      7 I7          6.5200    1.9600   -0.1800 I         1 LIG     -0.186400
      8 I8          5.7210   -0.5570    1.9660 I         1 LIG     -0.186400
      9 H9          3.5450    1.4750    0.9000 H         1 LIG      0.075700
     10 H10         3.5500    1.3860   -0.8500 H         1 LIG      0.075700
     11 H11         5.3510   -0.4340   -0.7350 H         1 LIG      0.116700
@<TRIPOS>BOND
     1    1    5 1   
     2    5    6 1   
     3    6    8 1   
     4    6    7 1   
     5    1    4 1   
     6    1    3 1   
     7    1    2 1   
     8    5    9 1   
     9    5   10 1   
    10    6   11 1   
@<TRIPOS>SUBSTRUCTURE
     1 LIG         1 TEMP              0 ****  ****    0 ROOT
