@<TRIPOS>MOLECULE
*****
   11    10     1     0     0
SMALL
bcc


@<TRIPOS>ATOM
      1 N1          0.9910   -0.0300   -0.0020 N.4      1 LIG     -0.846600
      2 H2          0.6010    0.4480    0.8250 H        1 LIG      0.466467
      3 H3          0.5720    0.4030   -0.8370 H        1 LIG      0.466467
      4 H4          0.6570   -1.0040    0.0330 H        1 LIG      0.466467
      5 C5          2.4860    0.0240   -0.0080 C.3      1 LIG      0.130800
      6 C6          3.0110    1.4700   -0.0080 C.3      1 LIG      0.082100
      7 I7          2.4140    2.4960    1.7780 I        1 LIG     -0.077400
      8 I8          5.1390    1.4830   -0.0080 I        1 LIG     -0.077400
      9 H9          2.8030   -0.5160   -0.9060 H        1 LIG      0.129200
     10 H10         2.8110   -0.5430    0.8720 H        1 LIG      0.129200
     11 H11         2.6290    2.0050   -0.8840 H        1 LIG      0.129700
@<TRIPOS>BOND
     1    1    5 1   
     2    5    6 1   
     3    6    8 1   
     4    6    7 1   
     5    1    4 1   
     6    1    3 1   
     7    1    2 1   
     8    5    9 1   
     9    5   10 1   
    10    6   11 1   
@<TRIPOS>SUBSTRUCTURE
     1 LIG         1 TEMP              0 ****  ****    0 ROOT
