@<TRIPOS>MOLECULE
*****
   10     9     1     0     0
SMALL
No Charge or Current Charge


@<TRIPOS>ATOM
      1 N1           0.9850    0.0040    0.0480 N.3        1 LIG     -0.922800
      2 H2           0.7250    0.9400   -0.2660 H          1 LIG      0.360800
      3 H3           0.6290   -0.0790    1.0020 H          1 LIG      0.360800
      4 C4           2.4490   -0.1120    0.0620 C.3        1 LIG      0.174800
      5 C5           2.9450   -1.4760    0.5820 C.3        1 LIG      0.195100
      6 I6           5.0880   -1.6040    0.4110 I          1 LIG     -0.190900
      7 I7           2.5430   -1.7120    2.6840 I          1 LIG     -0.190900
      8 H8           2.8600    0.7110    0.6590 H          1 LIG      0.046700
      9 H9           2.7990    0.0370   -0.9660 H          1 LIG      0.046700
     10 H10          2.4840   -2.2940    0.0160 H          1 LIG      0.118700
@<TRIPOS>BOND
     1    1    2 1   
     2    1    3 1   
     3    1    4 1   
     4    4    5 1   
     5    5    6 1   
     6    5    7 1   
     7    4    8 1   
     8    4    9 1   
     9    5   10 1   
@<TRIPOS>SUBSTRUCTURE
     1 LIG         1 TEMP              0 ****  ****    0 ROOT
