@<TRIPOS>MOLECULE
LIG
    9     8     1     0     0
SMALL
No Charge or Current Charge


@<TRIPOS>ATOM
      1 O1           1.0200    0.0400    0.0010 O.2       1 LIG     -0.585800
      2 H2           0.7790   -0.2670   -0.8910 H         1 LIG      0.405000
      3 C3           2.4460    0.0630    0.0680 C.3       1 LIG      0.142400
      4 C4           2.9090    0.6300    1.4150 C.3       1 LIG      0.148100
      5 I5           5.0030    0.2780    1.7050 I         1 LIG     -0.182900
      6 I6           2.6890    2.7740    1.4700 I         1 LIG     -0.182900
      7 H7           2.8250    0.6440   -0.7810 H         1 LIG      0.068700
      8 H8           2.7840   -0.9720   -0.0530 H         1 LIG      0.068700
      9 H9           2.3270    0.1920    2.2330 H         1 LIG      0.118700
@<TRIPOS>BOND
     1    1    2 1   
     2    1    3 1   
     3    3    4 1   
     4    4    5 1   
     5    4    6 1   
     6    3    7 1   
     7    3    8 1   
     8    4    9 1   
@<TRIPOS>SUBSTRUCTURE
     1 LIG         1 TEMP              0 ****  ****    0 ROOT
