@<TRIPOS>MOLECULE
*****
 11 10 0 0 0
SMALL
GASTEIGER

@<TRIPOS>ATOM
      1 C           0.9040    0.0926    0.0693 C.3     1  LIG1       -0.0636
      2 C           2.4209   -0.0505    0.1268 C.3     1  LIG1       -0.0351
      3 C           2.8739   -1.4129    0.6646 C.3     1  LIG1        0.0626
      4 I           4.9968   -1.6588    0.3523 I       1  LIG1       -0.0704
      5 I           2.6201   -1.5803    2.7862 I       1  LIG1       -0.0704
      6 H           0.6362    1.0472   -0.3952 H       1  LIG1        0.0230
      7 H           0.4542    0.0724    1.0658 H       1  LIG1        0.0230
      8 H           0.4574   -0.7089   -0.5279 H       1  LIG1        0.0230
      9 H           2.8382    0.7726    0.7205 H       1  LIG1        0.0280
     10 H           2.7979    0.0835   -0.8954 H       1  LIG1        0.0280
     11 H           2.3443   -2.2241    0.1532 H       1  LIG1        0.0518
@<TRIPOS>BOND
     1     1     2    1
     2     2     3    1
     3     3     4    1
     4     3     5    1
     5     1     6    1
     6     1     7    1
     7     1     8    1
     8     2     9    1
     9     2    10    1
    10     3    11    1
