@<TRIPOS>MOLECULE
*****
 10 9 0 0 0
SMALL
GASTEIGER

@<TRIPOS>ATOM
      1 N           0.9850    0.0045    0.0480 N.3     1  LIG1       -0.3283
      2 C           2.4489   -0.1122    0.0623 C.3     1  LIG1        0.0138
      3 C           2.9451   -1.4764    0.5815 C.3     1  LIG1        0.0751
      4 I           5.0879   -1.6037    0.4115 I       1  LIG1       -0.0690
      5 I           2.5434   -1.7120    2.6840 I       1  LIG1       -0.0690
      6 H           0.7250    0.9400   -0.2661 H       1  LIG1        0.1183
      7 H           0.6291   -0.0785    1.0022 H       1  LIG1        0.1183
      8 H           2.8602    0.7111    0.6595 H       1  LIG1        0.0439
      9 H           2.7990    0.0369   -0.9660 H       1  LIG1        0.0439
     10 H           2.4836   -2.2936    0.0161 H       1  LIG1        0.0531
@<TRIPOS>BOND
     1     1     2    1
     2     2     3    1
     3     3     4    1
     4     3     5    1
     5     1     6    1
     6     1     7    1
     7     2     8    1
     8     2     9    1
     9     3    10    1
