@<TRIPOS>MOLECULE
*****
 9 8 0 0 0
SMALL
GASTEIGER

@<TRIPOS>ATOM
      1 O           1.0201    0.0396    0.0008 O.3     1  LIG1       -0.3932
      2 C           2.4465    0.0633    0.0678 C.3     1  LIG1        0.0648
      3 C           2.9088    0.6298    1.4150 C.3     1  LIG1        0.0858
      4 I           5.0025    0.2783    1.7054 I       1  LIG1       -0.0680
      5 I           2.6892    2.7737    1.4698 I       1  LIG1       -0.0680
      6 H           0.7787   -0.2670   -0.8910 H       1  LIG1        0.2095
      7 H           2.8253    0.6440   -0.7810 H       1  LIG1        0.0575
      8 H           2.7841   -0.9720   -0.0526 H       1  LIG1        0.0575
      9 H           2.3268    0.1918    2.2331 H       1  LIG1        0.0541
@<TRIPOS>BOND
     1     1     2    1
     2     2     3    1
     3     3     4    1
     4     3     5    1
     5     1     6    1
     6     2     7    1
     7     2     8    1
     8     3     9    1
